  0
SECTION
  2
ENTITIES
999
DXF created from EnergyPlus
999
Program Version,EnergyPlus, Version 9.6.0-f420c06a69, YMD=2024.11.26 15:14
999
Polygon Action,TRIANGULATE3DFACE
999
Color Scheme,Default
999
Text - True North
  0
TEXT
  8
1
  6
Continuous
 62
  3
 10
      -19.91227
 20
       10.66455
 30
        0.10000
 40
 .25
  1
True North
 41
 0.0
  7
MONOTXT
210
0.0
220
0.0
230
1.0
999
Text - Building Title
  0
TEXT
  8
1
  6
Continuous
 62
  3
 10
      -22.91227
 20
        6.66455
 30
        0.10000
 40
 .4
  1
Building - Building
 41
 0.0
  7
MONOTXT
210
0.0
220
0.0
230
1.0
999
North Arrow Stem
  0
3DFACE
  8
1
 62
  3
 10
      -18.91227
 20
       10.66455
 30
        0.10000
 11
      -18.91227
 21
       10.66455
 31
        0.00000
 12
      -18.91227
 22
        7.66455
 32
        0.00000
 13
      -18.91227
 23
        7.66455
 33
        0.10000
999
North Arrow Head 1
  0
3DFACE
  8
1
 62
  3
 10
      -18.91227
 20
       10.66455
 30
        0.10000
 11
      -18.91227
 21
       10.66455
 31
        0.00000
 12
      -19.41227
 22
        9.79853
 32
        0.00000
 13
      -19.41227
 23
        9.79853
 33
        0.10000
999
North Arrow Head 2
  0
3DFACE
  8
1
 62
  3
 10
      -18.91227
 20
       10.66455
 30
        0.10000
 11
      -18.91227
 21
       10.66455
 31
        0.00000
 12
      -18.41227
 22
        9.79853
 32
        0.00000
 13
      -18.41227
 23
        9.79853
 33
        0.10000
999
North Arrow Side 1
  0
3DFACE
  8
1
 62
  3
 10
      -19.41227
 20
       12.16455
 30
        0.10000
 11
      -19.41227
 21
       12.16455
 31
        0.00000
 12
      -19.41227
 22
       11.16455
 32
        0.00000
 13
      -19.41227
 23
       11.16455
 33
        0.10000
999
North Arrow Side 2
  0
3DFACE
  8
1
 62
  3
 10
      -19.41227
 20
       12.16455
 30
        0.10000
 11
      -19.41227
 21
       12.16455
 31
        0.00000
 12
      -18.41227
 22
       11.16455
 32
        0.00000
 13
      -18.41227
 23
       11.16455
 33
        0.10000
999
North Arrow Side 3
  0
3DFACE
  8
1
 62
  3
 10
      -18.41227
 20
       12.16455
 30
        0.10000
 11
      -18.41227
 21
       12.16455
 31
        0.00000
 12
      -18.41227
 22
       11.16455
 32
        0.00000
 13
      -18.41227
 23
       11.16455
 33
        0.10000
999
Zone Names
999
Zone=1:BLOCK1_ZONEWEST
999
Zone=2:BLOCK1_ZONESOUTH
999
Zone=3:BLOCK1_ZONEEAST
999
Zone=4:BLOCK1_ZONENORTH
999
BLOCK1:ZONEWEST:BLOCK1:ZONEWEST_PARTITION_2_0_0
  0
3DFACE
  8
BLOCK1_ZONEWEST
 62
 43
 10
       -8.91227
 20
        7.66455
 30
        3.50000
 11
       -8.91227
 21
        7.66455
 31
        0.00000
 12
       -1.41227
 22
       15.16455
 32
        0.00000
 13
       -1.41227
 23
       15.16455
 33
        3.50000
999
BLOCK1:ZONEWEST:BLOCK1:ZONEWEST_PARTITION_3_0_0
  0
3DFACE
  8
BLOCK1_ZONEWEST
 62
 43
 10
       -1.41227
 20
       15.16455
 30
        3.50000
 11
       -1.41227
 21
       15.16455
 31
        0.00000
 12
       -8.91227
 22
       22.66455
 32
        0.00000
 13
       -8.91227
 23
       22.66455
 33
        3.50000
999
BLOCK1:ZONEWEST:BLOCK1:ZONEWEST_WALL_4_0_0
  0
3DFACE
  8
BLOCK1_ZONEWEST
 62
 43
 10
       -8.91227
 20
       22.66455
 30
        3.50000
 11
       -8.91227
 21
       22.66455
 31
        0.00000
 12
       -8.91227
 22
        7.66455
 32
        0.00000
 13
       -8.91227
 23
        7.66455
 33
        3.50000
999
BLOCK1:ZONEWEST:BLOCK1:ZONEWEST_WALL_4_0_0_0_0_0_WIN
  0
3DFACE
  8
BLOCK1_ZONEWEST
 62
143
 10
       -8.91227
 20
       20.33208
 30
        2.26000
 11
       -8.91227
 21
       20.33208
 31
        0.84000
 12
       -8.91227
 22
       17.09661
 32
        0.84000
 13
       -8.91227
 23
       17.09661
 33
        2.26000
999
BLOCK1:ZONEWEST:BLOCK1:ZONEWEST_WALL_4_0_0_1_0_1_WIN
  0
3DFACE
  8
BLOCK1_ZONEWEST
 62
143
 10
       -8.91227
 20
       13.23250
 30
        2.26000
 11
       -8.91227
 21
       13.23250
 31
        0.84000
 12
       -8.91227
 22
        9.99703
 32
        0.84000
 13
       -8.91227
 23
        9.99703
 33
        2.26000
999
BLOCK1:ZONEWEST:BLOCK1:ZONEWEST_GROUNDFLOOR_0_0_0
  0
3DFACE
  8
BLOCK1_ZONEWEST
 62
  8
 10
       -1.41227
 20
       15.16455
 30
        0.00000
 11
       -8.91227
 21
        7.66455
 31
        0.00000
 12
       -8.91227
 22
       22.66455
 32
        0.00000
 13
       -8.91227
 23
       22.66455
 33
        0.00000
999
BLOCK1:ZONEWEST:BLOCK1:ZONEWEST_ROOF_1_0_0
  0
3DFACE
  8
BLOCK1_ZONEWEST
 62
 15
 10
       -8.91227
 20
       22.66455
 30
        3.50000
 11
       -8.91227
 21
        7.66455
 31
        3.50000
 12
       -1.41227
 22
       15.16455
 32
        3.50000
 13
       -1.41227
 23
       15.16455
 33
        3.50000
999
BLOCK1:ZONESOUTH:BLOCK1:ZONESOUTH_PARTITION_3_0_10000
  0
3DFACE
  8
BLOCK1_ZONESOUTH
 62
 43
 10
       -1.41227
 20
       15.16455
 30
        3.50000
 11
       -1.41227
 21
       15.16455
 31
        0.00000
 12
       -8.91227
 22
        7.66455
 32
        0.00000
 13
       -8.91227
 23
        7.66455
 33
        3.50000
999
BLOCK1:ZONESOUTH:BLOCK1:ZONESOUTH_PARTITION_2_0_0
  0
3DFACE
  8
BLOCK1_ZONESOUTH
 62
 43
 10
        6.08773
 20
        7.66455
 30
        3.50000
 11
        6.08773
 21
        7.66455
 31
        0.00000
 12
       -1.41227
 22
       15.16455
 32
        0.00000
 13
       -1.41227
 23
       15.16455
 33
        3.50000
999
BLOCK1:ZONESOUTH:BLOCK1:ZONESOUTH_WALL_4_0_0
  0
3DFACE
  8
BLOCK1_ZONESOUTH
 62
 43
 10
       -8.91227
 20
        7.66455
 30
        3.50000
 11
       -8.91227
 21
        7.66455
 31
        0.00000
 12
        6.08773
 22
        7.66455
 32
        0.00000
 13
        6.08773
 23
        7.66455
 33
        3.50000
999
BLOCK1:ZONESOUTH:BLOCK1:ZONESOUTH_WALL_4_0_0_0_0_0_WIN
  0
3DFACE
  8
BLOCK1_ZONESOUTH
 62
143
 10
       -6.57979
 20
        7.66455
 30
        2.26000
 11
       -6.57979
 21
        7.66455
 31
        0.84000
 12
       -3.34432
 22
        7.66455
 32
        0.84000
 13
       -3.34432
 23
        7.66455
 33
        2.26000
999
BLOCK1:ZONESOUTH:BLOCK1:ZONESOUTH_WALL_4_0_0_1_0_1_WIN
  0
3DFACE
  8
BLOCK1_ZONESOUTH
 62
143
 10
        0.51978
 20
        7.66455
 30
        2.26000
 11
        0.51978
 21
        7.66455
 31
        0.84000
 12
        3.75525
 22
        7.66455
 32
        0.84000
 13
        3.75525
 23
        7.66455
 33
        2.26000
999
BLOCK1:ZONESOUTH:BLOCK1:ZONESOUTH_GROUNDFLOOR_0_0_0
  0
3DFACE
  8
BLOCK1_ZONESOUTH
 62
  8
 10
       -1.41227
 20
       15.16455
 30
        0.00000
 11
        6.08773
 21
        7.66455
 31
        0.00000
 12
       -8.91227
 22
        7.66455
 32
        0.00000
 13
       -8.91227
 23
        7.66455
 33
        0.00000
999
BLOCK1:ZONESOUTH:BLOCK1:ZONESOUTH_ROOF_1_0_0
  0
3DFACE
  8
BLOCK1_ZONESOUTH
 62
 15
 10
       -1.41227
 20
       15.16455
 30
        3.50000
 11
       -8.91227
 21
        7.66455
 31
        3.50000
 12
        6.08773
 22
        7.66455
 32
        3.50000
 13
        6.08773
 23
        7.66455
 33
        3.50000
999
BLOCK1:ZONEEAST:BLOCK1:ZONEEAST_PARTITION_4_0_10002
  0
3DFACE
  8
BLOCK1_ZONEEAST
 62
 43
 10
       -1.41227
 20
       15.16455
 30
        3.50000
 11
       -1.41227
 21
       15.16455
 31
        0.00000
 12
        6.08773
 22
        7.66455
 32
        0.00000
 13
        6.08773
 23
        7.66455
 33
        3.50000
999
BLOCK1:ZONEEAST:BLOCK1:ZONEEAST_WALL_2_0_0
  0
3DFACE
  8
BLOCK1_ZONEEAST
 62
 43
 10
        6.08773
 20
        7.66455
 30
        3.50000
 11
        6.08773
 21
        7.66455
 31
        0.00000
 12
        6.08773
 22
       22.66455
 32
        0.00000
 13
        6.08773
 23
       22.66455
 33
        3.50000
999
BLOCK1:ZONEEAST:BLOCK1:ZONEEAST_WALL_2_0_0_0_0_0_WIN
  0
3DFACE
  8
BLOCK1_ZONEEAST
 62
143
 10
        6.08773
 20
        9.99703
 30
        2.26000
 11
        6.08773
 21
        9.99703
 31
        0.84000
 12
        6.08773
 22
       13.23250
 32
        0.84000
 13
        6.08773
 23
       13.23250
 33
        2.26000
999
BLOCK1:ZONEEAST:BLOCK1:ZONEEAST_WALL_2_0_0_1_0_1_WIN
  0
3DFACE
  8
BLOCK1_ZONEEAST
 62
143
 10
        6.08773
 20
       17.09661
 30
        2.26000
 11
        6.08773
 21
       17.09661
 31
        0.84000
 12
        6.08773
 22
       20.33208
 32
        0.84000
 13
        6.08773
 23
       20.33208
 33
        2.26000
999
BLOCK1:ZONEEAST:BLOCK1:ZONEEAST_PARTITION_3_0_0
  0
3DFACE
  8
BLOCK1_ZONEEAST
 62
 43
 10
        6.08773
 20
       22.66455
 30
        3.50000
 11
        6.08773
 21
       22.66455
 31
        0.00000
 12
       -1.41227
 22
       15.16455
 32
        0.00000
 13
       -1.41227
 23
       15.16455
 33
        3.50000
999
BLOCK1:ZONEEAST:BLOCK1:ZONEEAST_GROUNDFLOOR_0_0_0
  0
3DFACE
  8
BLOCK1_ZONEEAST
 62
  8
 10
        6.08773
 20
       22.66455
 30
        0.00000
 11
        6.08773
 21
        7.66455
 31
        0.00000
 12
       -1.41227
 22
       15.16455
 32
        0.00000
 13
       -1.41227
 23
       15.16455
 33
        0.00000
999
BLOCK1:ZONEEAST:BLOCK1:ZONEEAST_ROOF_1_0_0
  0
3DFACE
  8
BLOCK1_ZONEEAST
 62
 15
 10
       -1.41227
 20
       15.16455
 30
        3.50000
 11
        6.08773
 21
        7.66455
 31
        3.50000
 12
        6.08773
 22
       22.66455
 32
        3.50000
 13
        6.08773
 23
       22.66455
 33
        3.50000
999
BLOCK1:ZONENORTH:BLOCK1:ZONENORTH_PARTITION_4_0_10001
  0
3DFACE
  8
BLOCK1_ZONENORTH
 62
 43
 10
       -8.91227
 20
       22.66455
 30
        3.50000
 11
       -8.91227
 21
       22.66455
 31
        0.00000
 12
       -1.41227
 22
       15.16455
 32
        0.00000
 13
       -1.41227
 23
       15.16455
 33
        3.50000
999
BLOCK1:ZONENORTH:BLOCK1:ZONENORTH_PARTITION_2_0_10003
  0
3DFACE
  8
BLOCK1_ZONENORTH
 62
 43
 10
       -1.41227
 20
       15.16455
 30
        3.50000
 11
       -1.41227
 21
       15.16455
 31
        0.00000
 12
        6.08773
 22
       22.66455
 32
        0.00000
 13
        6.08773
 23
       22.66455
 33
        3.50000
999
BLOCK1:ZONENORTH:BLOCK1:ZONENORTH_WALL_3_0_0
  0
3DFACE
  8
BLOCK1_ZONENORTH
 62
 43
 10
        6.08773
 20
       22.66455
 30
        3.50000
 11
        6.08773
 21
       22.66455
 31
        0.00000
 12
       -8.91227
 22
       22.66455
 32
        0.00000
 13
       -8.91227
 23
       22.66455
 33
        3.50000
999
BLOCK1:ZONENORTH:BLOCK1:ZONENORTH_WALL_3_0_0_0_0_0_WIN
  0
3DFACE
  8
BLOCK1_ZONENORTH
 62
143
 10
        3.75525
 20
       22.66455
 30
        2.26000
 11
        3.75525
 21
       22.66455
 31
        0.84000
 12
        0.51978
 22
       22.66455
 32
        0.84000
 13
        0.51978
 23
       22.66455
 33
        2.26000
999
BLOCK1:ZONENORTH:BLOCK1:ZONENORTH_WALL_3_0_0_1_0_1_WIN
  0
3DFACE
  8
BLOCK1_ZONENORTH
 62
143
 10
       -3.34432
 20
       22.66455
 30
        2.26000
 11
       -3.34432
 21
       22.66455
 31
        0.84000
 12
       -6.57979
 22
       22.66455
 32
        0.84000
 13
       -6.57979
 23
       22.66455
 33
        2.26000
999
BLOCK1:ZONENORTH:BLOCK1:ZONENORTH_GROUNDFLOOR_0_0_0
  0
3DFACE
  8
BLOCK1_ZONENORTH
 62
  8
 10
        6.08773
 20
       22.66455
 30
        0.00000
 11
       -1.41227
 21
       15.16455
 31
        0.00000
 12
       -8.91227
 22
       22.66455
 32
        0.00000
 13
       -8.91227
 23
       22.66455
 33
        0.00000
999
BLOCK1:ZONENORTH:BLOCK1:ZONENORTH_ROOF_1_0_0
  0
3DFACE
  8
BLOCK1_ZONENORTH
 62
 15
 10
       -8.91227
 20
       22.66455
 30
        3.50000
 11
       -1.41227
 21
       15.16455
 31
        3.50000
 12
        6.08773
 22
       22.66455
 32
        3.50000
 13
        6.08773
 23
       22.66455
 33
        3.50000
  0
ENDSEC
  0
EOF
