  0
SECTION
  2
ENTITIES
999
DXF created from EnergyPlus
999
Program Version,EnergyPlus, Version 9.6.0-f420c06a69, YMD=2025.09.19 11:05
999
Polygon Action,TRIANGULATE3DFACE
999
Color Scheme,Default
999
Text - True North
  0
TEXT
  8
1
  6
Continuous
 62
  3
 10
       -8.81576
 20
        5.58603
 30
        0.10000
 40
 .25
  1
True North
 41
 0.0
  7
MONOTXT
210
0.0
220
0.0
230
1.0
999
Text - Building Title
  0
TEXT
  8
1
  6
Continuous
 62
  3
 10
      -11.81576
 20
        1.58603
 30
        0.10000
 40
 .4
  1
Building - Building
 41
 0.0
  7
MONOTXT
210
0.0
220
0.0
230
1.0
999
North Arrow Stem
  0
3DFACE
  8
1
 62
  3
 10
       -7.81576
 20
        5.58603
 30
        0.10000
 11
       -7.81576
 21
        5.58603
 31
        0.00000
 12
       -7.81576
 22
        2.58603
 32
        0.00000
 13
       -7.81576
 23
        2.58603
 33
        0.10000
999
North Arrow Head 1
  0
3DFACE
  8
1
 62
  3
 10
       -7.81576
 20
        5.58603
 30
        0.10000
 11
       -7.81576
 21
        5.58603
 31
        0.00000
 12
       -8.31576
 22
        4.72001
 32
        0.00000
 13
       -8.31576
 23
        4.72001
 33
        0.10000
999
North Arrow Head 2
  0
3DFACE
  8
1
 62
  3
 10
       -7.81576
 20
        5.58603
 30
        0.10000
 11
       -7.81576
 21
        5.58603
 31
        0.00000
 12
       -7.31576
 22
        4.72001
 32
        0.00000
 13
       -7.31576
 23
        4.72001
 33
        0.10000
999
North Arrow Side 1
  0
3DFACE
  8
1
 62
  3
 10
       -8.31576
 20
        7.08603
 30
        0.10000
 11
       -8.31576
 21
        7.08603
 31
        0.00000
 12
       -8.31576
 22
        6.08603
 32
        0.00000
 13
       -8.31576
 23
        6.08603
 33
        0.10000
999
North Arrow Side 2
  0
3DFACE
  8
1
 62
  3
 10
       -8.31576
 20
        7.08603
 30
        0.10000
 11
       -8.31576
 21
        7.08603
 31
        0.00000
 12
       -7.31576
 22
        6.08603
 32
        0.00000
 13
       -7.31576
 23
        6.08603
 33
        0.10000
999
North Arrow Side 3
  0
3DFACE
  8
1
 62
  3
 10
       -7.31576
 20
        7.08603
 30
        0.10000
 11
       -7.31576
 21
        7.08603
 31
        0.00000
 12
       -7.31576
 22
        6.08603
 32
        0.00000
 13
       -7.31576
 23
        6.08603
 33
        0.10000
999
Zone Names
999
Zone=1:BLOCK1B_KITCHEN
999
Zone=2:BLOCK1B_BATHROOM1
999
Zone=3:BLOCK1B_ROOM1
999
Zone=4:BLOCK1B_CORRIDOR
999
Zone=5:BLOCK1B_BATHROOM
999
Zone=6:BLOCK1B_LIVINGROOM
999
Zone=7:BLOCK1B_ROOM
999
Building Shading:BUILDING_1_BLOCK_COMPONENT9 - SURFACE 1 (1)
  0
3DFACE
  8
Building Shading
 62
195
 10
       11.43424
 20
        3.58603
 30
       -0.07500
 11
       11.43424
 21
        2.58603
 31
       -0.07500
 12
        6.43424
 22
        2.58603
 32
       -0.07500
 13
        6.43424
 23
        3.58603
 33
       -0.07500
999
Building Shading:Mir-BUILDING_1_BLOCK_COMPONENT9 - SURFACE 1 (1)
  0
3DFACE
  8
Building Shading
 62
195
 10
        6.43424
 20
        3.58603
 30
       -0.07500
 11
        6.43424
 21
        2.58603
 31
       -0.07500
 12
       11.43424
 22
        2.58603
 32
       -0.07500
 13
       11.43424
 23
        3.58603
 33
       -0.07500
999
Building Shading:BUILDING_1_BLOCK_COMPONENT9 - SURFACE 2 (2)
  0
3DFACE
  8
Building Shading
 62
195
 10
        6.43424
 20
        3.58603
 30
        0.07500
 11
        6.43424
 21
        2.58603
 31
        0.07500
 12
       11.43424
 22
        2.58603
 32
        0.07500
 13
       11.43424
 23
        3.58603
 33
        0.07500
999
Building Shading:Mir-BUILDING_1_BLOCK_COMPONENT9 - SURFACE 2 (2)
  0
3DFACE
  8
Building Shading
 62
195
 10
       11.43424
 20
        3.58603
 30
        0.07500
 11
       11.43424
 21
        2.58603
 31
        0.07500
 12
        6.43424
 22
        2.58603
 32
        0.07500
 13
        6.43424
 23
        3.58603
 33
        0.07500
999
Building Shading:BUILDING_1_BLOCK_COMPONENT9 - SURFACE 3 (3)
  0
3DFACE
  8
Building Shading
 62
195
 10
       11.43424
 20
        2.58603
 30
        0.07500
 11
       11.43424
 21
        2.58603
 31
       -0.07500
 12
       11.43424
 22
        3.58603
 32
       -0.07500
 13
       11.43424
 23
        3.58603
 33
        0.07500
999
Building Shading:Mir-BUILDING_1_BLOCK_COMPONENT9 - SURFACE 3 (3)
  0
3DFACE
  8
Building Shading
 62
195
 10
       11.43424
 20
        3.58603
 30
        0.07500
 11
       11.43424
 21
        3.58603
 31
       -0.07500
 12
       11.43424
 22
        2.58603
 32
       -0.07500
 13
       11.43424
 23
        2.58603
 33
        0.07500
999
Building Shading:BUILDING_1_BLOCK_COMPONENT9 - SURFACE 4 (4)
  0
3DFACE
  8
Building Shading
 62
195
 10
        6.43424
 20
        2.58603
 30
        0.07500
 11
        6.43424
 21
        2.58603
 31
       -0.07500
 12
       11.43424
 22
        2.58603
 32
       -0.07500
 13
       11.43424
 23
        2.58603
 33
        0.07500
999
Building Shading:Mir-BUILDING_1_BLOCK_COMPONENT9 - SURFACE 4 (4)
  0
3DFACE
  8
Building Shading
 62
195
 10
       11.43424
 20
        2.58603
 30
        0.07500
 11
       11.43424
 21
        2.58603
 31
       -0.07500
 12
        6.43424
 22
        2.58603
 32
       -0.07500
 13
        6.43424
 23
        2.58603
 33
        0.07500
999
Building Shading:BUILDING_1_BLOCK_COMPONENT9 - SURFACE 5 (5)
  0
3DFACE
  8
Building Shading
 62
195
 10
        6.43424
 20
        3.58603
 30
        0.07500
 11
        6.43424
 21
        3.58603
 31
       -0.07500
 12
        6.43424
 22
        2.58603
 32
       -0.07500
 13
        6.43424
 23
        2.58603
 33
        0.07500
999
Building Shading:Mir-BUILDING_1_BLOCK_COMPONENT9 - SURFACE 5 (5)
  0
3DFACE
  8
Building Shading
 62
195
 10
        6.43424
 20
        2.58603
 30
        0.07500
 11
        6.43424
 21
        2.58603
 31
       -0.07500
 12
        6.43424
 22
        3.58603
 32
       -0.07500
 13
        6.43424
 23
        3.58603
 33
        0.07500
999
Building Shading:BUILDING_1_BLOCK_COMPONENT9 - SURFACE 6 (6)
  0
3DFACE
  8
Building Shading
 62
195
 10
       11.43424
 20
        3.58603
 30
        0.07500
 11
       11.43424
 21
        3.58603
 31
       -0.07500
 12
        6.43424
 22
        3.58603
 32
       -0.07500
 13
        6.43424
 23
        3.58603
 33
        0.07500
999
Building Shading:Mir-BUILDING_1_BLOCK_COMPONENT9 - SURFACE 6 (6)
  0
3DFACE
  8
Building Shading
 62
195
 10
        6.43424
 20
        3.58603
 30
        0.07500
 11
        6.43424
 21
        3.58603
 31
       -0.07500
 12
       11.43424
 22
        3.58603
 32
       -0.07500
 13
       11.43424
 23
        3.58603
 33
        0.07500
999
Building Shading:BUILDING_1_BLOCK_COMPONENT10 - SURFACE 1 (7)
  0
3DFACE
  8
Building Shading
 62
195
 10
       11.43424
 20
        3.58603
 30
        2.92500
 11
       11.43424
 21
        2.58603
 31
        2.92500
 12
        6.43424
 22
        2.58603
 32
        2.92500
 13
        6.43424
 23
        3.58603
 33
        2.92500
999
Building Shading:Mir-BUILDING_1_BLOCK_COMPONENT10 - SURFACE 1 (7)
  0
3DFACE
  8
Building Shading
 62
195
 10
        6.43424
 20
        3.58603
 30
        2.92500
 11
        6.43424
 21
        2.58603
 31
        2.92500
 12
       11.43424
 22
        2.58603
 32
        2.92500
 13
       11.43424
 23
        3.58603
 33
        2.92500
999
Building Shading:BUILDING_1_BLOCK_COMPONENT10 - SURFACE 2 (8)
  0
3DFACE
  8
Building Shading
 62
195
 10
        6.43424
 20
        3.58603
 30
        3.07500
 11
        6.43424
 21
        2.58603
 31
        3.07500
 12
       11.43424
 22
        2.58603
 32
        3.07500
 13
       11.43424
 23
        3.58603
 33
        3.07500
999
Building Shading:Mir-BUILDING_1_BLOCK_COMPONENT10 - SURFACE 2 (8)
  0
3DFACE
  8
Building Shading
 62
195
 10
       11.43424
 20
        3.58603
 30
        3.07500
 11
       11.43424
 21
        2.58603
 31
        3.07500
 12
        6.43424
 22
        2.58603
 32
        3.07500
 13
        6.43424
 23
        3.58603
 33
        3.07500
999
Building Shading:BUILDING_1_BLOCK_COMPONENT10 - SURFACE 3 (9)
  0
3DFACE
  8
Building Shading
 62
195
 10
       11.43424
 20
        2.58603
 30
        3.07500
 11
       11.43424
 21
        2.58603
 31
        2.92500
 12
       11.43424
 22
        3.58603
 32
        2.92500
 13
       11.43424
 23
        3.58603
 33
        3.07500
999
Building Shading:Mir-BUILDING_1_BLOCK_COMPONENT10 - SURFACE 3 (9)
  0
3DFACE
  8
Building Shading
 62
195
 10
       11.43424
 20
        3.58603
 30
        3.07500
 11
       11.43424
 21
        3.58603
 31
        2.92500
 12
       11.43424
 22
        2.58603
 32
        2.92500
 13
       11.43424
 23
        2.58603
 33
        3.07500
999
Building Shading:BUILDING_1_BLOCK_COMPONENT10 - SURFACE 4 (10)
  0
3DFACE
  8
Building Shading
 62
195
 10
        6.43424
 20
        2.58603
 30
        3.07500
 11
        6.43424
 21
        2.58603
 31
        2.92500
 12
       11.43424
 22
        2.58603
 32
        2.92500
 13
       11.43424
 23
        2.58603
 33
        3.07500
999
Building Shading:Mir-BUILDING_1_BLOCK_COMPONENT10 - SURFACE 4 (10)
  0
3DFACE
  8
Building Shading
 62
195
 10
       11.43424
 20
        2.58603
 30
        3.07500
 11
       11.43424
 21
        2.58603
 31
        2.92500
 12
        6.43424
 22
        2.58603
 32
        2.92500
 13
        6.43424
 23
        2.58603
 33
        3.07500
999
Building Shading:BUILDING_1_BLOCK_COMPONENT10 - SURFACE 5 (11)
  0
3DFACE
  8
Building Shading
 62
195
 10
        6.43424
 20
        3.58603
 30
        3.07500
 11
        6.43424
 21
        3.58603
 31
        2.92500
 12
        6.43424
 22
        2.58603
 32
        2.92500
 13
        6.43424
 23
        2.58603
 33
        3.07500
999
Building Shading:Mir-BUILDING_1_BLOCK_COMPONENT10 - SURFACE 5 (11)
  0
3DFACE
  8
Building Shading
 62
195
 10
        6.43424
 20
        2.58603
 30
        3.07500
 11
        6.43424
 21
        2.58603
 31
        2.92500
 12
        6.43424
 22
        3.58603
 32
        2.92500
 13
        6.43424
 23
        3.58603
 33
        3.07500
999
Building Shading:BUILDING_1_BLOCK_COMPONENT10 - SURFACE 6 (12)
  0
3DFACE
  8
Building Shading
 62
195
 10
       11.43424
 20
        3.58603
 30
        3.07500
 11
       11.43424
 21
        3.58603
 31
        2.92500
 12
        6.43424
 22
        3.58603
 32
        2.92500
 13
        6.43424
 23
        3.58603
 33
        3.07500
999
Building Shading:Mir-BUILDING_1_BLOCK_COMPONENT10 - SURFACE 6 (12)
  0
3DFACE
  8
Building Shading
 62
195
 10
        6.43424
 20
        3.58603
 30
        3.07500
 11
        6.43424
 21
        3.58603
 31
        2.92500
 12
       11.43424
 22
        3.58603
 32
        2.92500
 13
       11.43424
 23
        3.58603
 33
        3.07500
999
Building Shading:BUILDING_1_BLOCK_COMPONENT11 - SURFACE 1 (13)
  0
3DFACE
  8
Building Shading
 62
195
 10
       10.18424
 20
       13.58603
 30
       -0.07500
 11
       10.18424
 21
       12.58603
 31
       -0.07500
 12
        5.18424
 22
       12.58603
 32
       -0.07500
 13
        5.18424
 23
       13.58603
 33
       -0.07500
999
Building Shading:Mir-BUILDING_1_BLOCK_COMPONENT11 - SURFACE 1 (13)
  0
3DFACE
  8
Building Shading
 62
195
 10
        5.18424
 20
       13.58603
 30
       -0.07500
 11
        5.18424
 21
       12.58603
 31
       -0.07500
 12
       10.18424
 22
       12.58603
 32
       -0.07500
 13
       10.18424
 23
       13.58603
 33
       -0.07500
999
Building Shading:BUILDING_1_BLOCK_COMPONENT11 - SURFACE 2 (14)
  0
3DFACE
  8
Building Shading
 62
195
 10
        5.18424
 20
       13.58603
 30
        0.07500
 11
        5.18424
 21
       12.58603
 31
        0.07500
 12
       10.18424
 22
       12.58603
 32
        0.07500
 13
       10.18424
 23
       13.58603
 33
        0.07500
999
Building Shading:Mir-BUILDING_1_BLOCK_COMPONENT11 - SURFACE 2 (14)
  0
3DFACE
  8
Building Shading
 62
195
 10
       10.18424
 20
       13.58603
 30
        0.07500
 11
       10.18424
 21
       12.58603
 31
        0.07500
 12
        5.18424
 22
       12.58603
 32
        0.07500
 13
        5.18424
 23
       13.58603
 33
        0.07500
999
Building Shading:BUILDING_1_BLOCK_COMPONENT11 - SURFACE 3 (15)
  0
3DFACE
  8
Building Shading
 62
195
 10
       10.18424
 20
       12.58603
 30
        0.07500
 11
       10.18424
 21
       12.58603
 31
       -0.07500
 12
       10.18424
 22
       13.58603
 32
       -0.07500
 13
       10.18424
 23
       13.58603
 33
        0.07500
999
Building Shading:Mir-BUILDING_1_BLOCK_COMPONENT11 - SURFACE 3 (15)
  0
3DFACE
  8
Building Shading
 62
195
 10
       10.18424
 20
       13.58603
 30
        0.07500
 11
       10.18424
 21
       13.58603
 31
       -0.07500
 12
       10.18424
 22
       12.58603
 32
       -0.07500
 13
       10.18424
 23
       12.58603
 33
        0.07500
999
Building Shading:BUILDING_1_BLOCK_COMPONENT11 - SURFACE 4 (16)
  0
3DFACE
  8
Building Shading
 62
195
 10
        5.18424
 20
       12.58603
 30
        0.07500
 11
        5.18424
 21
       12.58603
 31
       -0.07500
 12
       10.18424
 22
       12.58603
 32
       -0.07500
 13
       10.18424
 23
       12.58603
 33
        0.07500
999
Building Shading:Mir-BUILDING_1_BLOCK_COMPONENT11 - SURFACE 4 (16)
  0
3DFACE
  8
Building Shading
 62
195
 10
       10.18424
 20
       12.58603
 30
        0.07500
 11
       10.18424
 21
       12.58603
 31
       -0.07500
 12
        5.18424
 22
       12.58603
 32
       -0.07500
 13
        5.18424
 23
       12.58603
 33
        0.07500
999
Building Shading:BUILDING_1_BLOCK_COMPONENT11 - SURFACE 5 (17)
  0
3DFACE
  8
Building Shading
 62
195
 10
        5.18424
 20
       13.58603
 30
        0.07500
 11
        5.18424
 21
       13.58603
 31
       -0.07500
 12
        5.18424
 22
       12.58603
 32
       -0.07500
 13
        5.18424
 23
       12.58603
 33
        0.07500
999
Building Shading:Mir-BUILDING_1_BLOCK_COMPONENT11 - SURFACE 5 (17)
  0
3DFACE
  8
Building Shading
 62
195
 10
        5.18424
 20
       12.58603
 30
        0.07500
 11
        5.18424
 21
       12.58603
 31
       -0.07500
 12
        5.18424
 22
       13.58603
 32
       -0.07500
 13
        5.18424
 23
       13.58603
 33
        0.07500
999
Building Shading:BUILDING_1_BLOCK_COMPONENT11 - SURFACE 6 (18)
  0
3DFACE
  8
Building Shading
 62
195
 10
       10.18424
 20
       13.58603
 30
        0.07500
 11
       10.18424
 21
       13.58603
 31
       -0.07500
 12
        5.18424
 22
       13.58603
 32
       -0.07500
 13
        5.18424
 23
       13.58603
 33
        0.07500
999
Building Shading:Mir-BUILDING_1_BLOCK_COMPONENT11 - SURFACE 6 (18)
  0
3DFACE
  8
Building Shading
 62
195
 10
        5.18424
 20
       13.58603
 30
        0.07500
 11
        5.18424
 21
       13.58603
 31
       -0.07500
 12
       10.18424
 22
       13.58603
 32
       -0.07500
 13
       10.18424
 23
       13.58603
 33
        0.07500
999
Building Shading:BUILDING_1_BLOCK_COMPONENT12 - SURFACE 1 (19)
  0
3DFACE
  8
Building Shading
 62
195
 10
       10.18424
 20
       13.58603
 30
        2.92500
 11
       10.18424
 21
       12.58603
 31
        2.92500
 12
        5.18424
 22
       12.58603
 32
        2.92500
 13
        5.18424
 23
       13.58603
 33
        2.92500
999
Building Shading:Mir-BUILDING_1_BLOCK_COMPONENT12 - SURFACE 1 (19)
  0
3DFACE
  8
Building Shading
 62
195
 10
        5.18424
 20
       13.58603
 30
        2.92500
 11
        5.18424
 21
       12.58603
 31
        2.92500
 12
       10.18424
 22
       12.58603
 32
        2.92500
 13
       10.18424
 23
       13.58603
 33
        2.92500
999
Building Shading:BUILDING_1_BLOCK_COMPONENT12 - SURFACE 2 (20)
  0
3DFACE
  8
Building Shading
 62
195
 10
        5.18424
 20
       13.58603
 30
        3.07500
 11
        5.18424
 21
       12.58603
 31
        3.07500
 12
       10.18424
 22
       12.58603
 32
        3.07500
 13
       10.18424
 23
       13.58603
 33
        3.07500
999
Building Shading:Mir-BUILDING_1_BLOCK_COMPONENT12 - SURFACE 2 (20)
  0
3DFACE
  8
Building Shading
 62
195
 10
       10.18424
 20
       13.58603
 30
        3.07500
 11
       10.18424
 21
       12.58603
 31
        3.07500
 12
        5.18424
 22
       12.58603
 32
        3.07500
 13
        5.18424
 23
       13.58603
 33
        3.07500
999
Building Shading:BUILDING_1_BLOCK_COMPONENT12 - SURFACE 3 (21)
  0
3DFACE
  8
Building Shading
 62
195
 10
       10.18424
 20
       12.58603
 30
        3.07500
 11
       10.18424
 21
       12.58603
 31
        2.92500
 12
       10.18424
 22
       13.58603
 32
        2.92500
 13
       10.18424
 23
       13.58603
 33
        3.07500
999
Building Shading:Mir-BUILDING_1_BLOCK_COMPONENT12 - SURFACE 3 (21)
  0
3DFACE
  8
Building Shading
 62
195
 10
       10.18424
 20
       13.58603
 30
        3.07500
 11
       10.18424
 21
       13.58603
 31
        2.92500
 12
       10.18424
 22
       12.58603
 32
        2.92500
 13
       10.18424
 23
       12.58603
 33
        3.07500
999
Building Shading:BUILDING_1_BLOCK_COMPONENT12 - SURFACE 4 (22)
  0
3DFACE
  8
Building Shading
 62
195
 10
        5.18424
 20
       12.58603
 30
        3.07500
 11
        5.18424
 21
       12.58603
 31
        2.92500
 12
       10.18424
 22
       12.58603
 32
        2.92500
 13
       10.18424
 23
       12.58603
 33
        3.07500
999
Building Shading:Mir-BUILDING_1_BLOCK_COMPONENT12 - SURFACE 4 (22)
  0
3DFACE
  8
Building Shading
 62
195
 10
       10.18424
 20
       12.58603
 30
        3.07500
 11
       10.18424
 21
       12.58603
 31
        2.92500
 12
        5.18424
 22
       12.58603
 32
        2.92500
 13
        5.18424
 23
       12.58603
 33
        3.07500
999
Building Shading:BUILDING_1_BLOCK_COMPONENT12 - SURFACE 5 (23)
  0
3DFACE
  8
Building Shading
 62
195
 10
        5.18424
 20
       13.58603
 30
        3.07500
 11
        5.18424
 21
       13.58603
 31
        2.92500
 12
        5.18424
 22
       12.58603
 32
        2.92500
 13
        5.18424
 23
       12.58603
 33
        3.07500
999
Building Shading:Mir-BUILDING_1_BLOCK_COMPONENT12 - SURFACE 5 (23)
  0
3DFACE
  8
Building Shading
 62
195
 10
        5.18424
 20
       12.58603
 30
        3.07500
 11
        5.18424
 21
       12.58603
 31
        2.92500
 12
        5.18424
 22
       13.58603
 32
        2.92500
 13
        5.18424
 23
       13.58603
 33
        3.07500
999
Building Shading:BUILDING_1_BLOCK_COMPONENT12 - SURFACE 6 (24)
  0
3DFACE
  8
Building Shading
 62
195
 10
       10.18424
 20
       13.58603
 30
        3.07500
 11
       10.18424
 21
       13.58603
 31
        2.92500
 12
        5.18424
 22
       13.58603
 32
        2.92500
 13
        5.18424
 23
       13.58603
 33
        3.07500
999
Building Shading:Mir-BUILDING_1_BLOCK_COMPONENT12 - SURFACE 6 (24)
  0
3DFACE
  8
Building Shading
 62
195
 10
        5.18424
 20
       13.58603
 30
        3.07500
 11
        5.18424
 21
       13.58603
 31
        2.92500
 12
       10.18424
 22
       13.58603
 32
        2.92500
 13
       10.18424
 23
       13.58603
 33
        3.07500
999
Building Shading:BUILDING_1_BLOCK_COMPONENT15 - SURFACE 1 (25)
  0
3DFACE
  8
Building Shading
 62
195
 10
       16.43424
 20
        3.58603
 30
       -0.07500
 11
       16.43424
 21
        2.58603
 31
       -0.07500
 12
       11.43424
 22
        2.58603
 32
       -0.07500
 13
       11.43424
 23
        3.58603
 33
       -0.07500
999
Building Shading:Mir-BUILDING_1_BLOCK_COMPONENT15 - SURFACE 1 (25)
  0
3DFACE
  8
Building Shading
 62
195
 10
       11.43424
 20
        3.58603
 30
       -0.07500
 11
       11.43424
 21
        2.58603
 31
       -0.07500
 12
       16.43424
 22
        2.58603
 32
       -0.07500
 13
       16.43424
 23
        3.58603
 33
       -0.07500
999
Building Shading:BUILDING_1_BLOCK_COMPONENT15 - SURFACE 2 (26)
  0
3DFACE
  8
Building Shading
 62
195
 10
       11.43424
 20
        3.58603
 30
        0.07500
 11
       11.43424
 21
        2.58603
 31
        0.07500
 12
       16.43424
 22
        2.58603
 32
        0.07500
 13
       16.43424
 23
        3.58603
 33
        0.07500
999
Building Shading:Mir-BUILDING_1_BLOCK_COMPONENT15 - SURFACE 2 (26)
  0
3DFACE
  8
Building Shading
 62
195
 10
       16.43424
 20
        3.58603
 30
        0.07500
 11
       16.43424
 21
        2.58603
 31
        0.07500
 12
       11.43424
 22
        2.58603
 32
        0.07500
 13
       11.43424
 23
        3.58603
 33
        0.07500
999
Building Shading:BUILDING_1_BLOCK_COMPONENT15 - SURFACE 3 (27)
  0
3DFACE
  8
Building Shading
 62
195
 10
       16.43424
 20
        2.58603
 30
        0.07500
 11
       16.43424
 21
        2.58603
 31
       -0.07500
 12
       16.43424
 22
        3.58603
 32
       -0.07500
 13
       16.43424
 23
        3.58603
 33
        0.07500
999
Building Shading:Mir-BUILDING_1_BLOCK_COMPONENT15 - SURFACE 3 (27)
  0
3DFACE
  8
Building Shading
 62
195
 10
       16.43424
 20
        3.58603
 30
        0.07500
 11
       16.43424
 21
        3.58603
 31
       -0.07500
 12
       16.43424
 22
        2.58603
 32
       -0.07500
 13
       16.43424
 23
        2.58603
 33
        0.07500
999
Building Shading:BUILDING_1_BLOCK_COMPONENT15 - SURFACE 4 (28)
  0
3DFACE
  8
Building Shading
 62
195
 10
       11.43424
 20
        2.58603
 30
        0.07500
 11
       11.43424
 21
        2.58603
 31
       -0.07500
 12
       16.43424
 22
        2.58603
 32
       -0.07500
 13
       16.43424
 23
        2.58603
 33
        0.07500
999
Building Shading:Mir-BUILDING_1_BLOCK_COMPONENT15 - SURFACE 4 (28)
  0
3DFACE
  8
Building Shading
 62
195
 10
       16.43424
 20
        2.58603
 30
        0.07500
 11
       16.43424
 21
        2.58603
 31
       -0.07500
 12
       11.43424
 22
        2.58603
 32
       -0.07500
 13
       11.43424
 23
        2.58603
 33
        0.07500
999
Building Shading:BUILDING_1_BLOCK_COMPONENT15 - SURFACE 5 (29)
  0
3DFACE
  8
Building Shading
 62
195
 10
       11.43424
 20
        3.58603
 30
        0.07500
 11
       11.43424
 21
        3.58603
 31
       -0.07500
 12
       11.43424
 22
        2.58603
 32
       -0.07500
 13
       11.43424
 23
        2.58603
 33
        0.07500
999
Building Shading:Mir-BUILDING_1_BLOCK_COMPONENT15 - SURFACE 5 (29)
  0
3DFACE
  8
Building Shading
 62
195
 10
       11.43424
 20
        2.58603
 30
        0.07500
 11
       11.43424
 21
        2.58603
 31
       -0.07500
 12
       11.43424
 22
        3.58603
 32
       -0.07500
 13
       11.43424
 23
        3.58603
 33
        0.07500
999
Building Shading:BUILDING_1_BLOCK_COMPONENT15 - SURFACE 6 (30)
  0
3DFACE
  8
Building Shading
 62
195
 10
       16.43424
 20
        3.58603
 30
        0.07500
 11
       16.43424
 21
        3.58603
 31
       -0.07500
 12
       11.43424
 22
        3.58603
 32
       -0.07500
 13
       11.43424
 23
        3.58603
 33
        0.07500
999
Building Shading:Mir-BUILDING_1_BLOCK_COMPONENT15 - SURFACE 6 (30)
  0
3DFACE
  8
Building Shading
 62
195
 10
       11.43424
 20
        3.58603
 30
        0.07500
 11
       11.43424
 21
        3.58603
 31
       -0.07500
 12
       16.43424
 22
        3.58603
 32
       -0.07500
 13
       16.43424
 23
        3.58603
 33
        0.07500
999
Building Shading:BUILDING_1_BLOCK_COMPONENT16 - SURFACE 1 (31)
  0
3DFACE
  8
Building Shading
 62
195
 10
       16.43424
 20
        3.58603
 30
        2.92500
 11
       16.43424
 21
        2.58603
 31
        2.92500
 12
       11.43424
 22
        2.58603
 32
        2.92500
 13
       11.43424
 23
        3.58603
 33
        2.92500
999
Building Shading:Mir-BUILDING_1_BLOCK_COMPONENT16 - SURFACE 1 (31)
  0
3DFACE
  8
Building Shading
 62
195
 10
       11.43424
 20
        3.58603
 30
        2.92500
 11
       11.43424
 21
        2.58603
 31
        2.92500
 12
       16.43424
 22
        2.58603
 32
        2.92500
 13
       16.43424
 23
        3.58603
 33
        2.92500
999
Building Shading:BUILDING_1_BLOCK_COMPONENT16 - SURFACE 2 (32)
  0
3DFACE
  8
Building Shading
 62
195
 10
       11.43424
 20
        3.58603
 30
        3.07500
 11
       11.43424
 21
        2.58603
 31
        3.07500
 12
       16.43424
 22
        2.58603
 32
        3.07500
 13
       16.43424
 23
        3.58603
 33
        3.07500
999
Building Shading:Mir-BUILDING_1_BLOCK_COMPONENT16 - SURFACE 2 (32)
  0
3DFACE
  8
Building Shading
 62
195
 10
       16.43424
 20
        3.58603
 30
        3.07500
 11
       16.43424
 21
        2.58603
 31
        3.07500
 12
       11.43424
 22
        2.58603
 32
        3.07500
 13
       11.43424
 23
        3.58603
 33
        3.07500
999
Building Shading:BUILDING_1_BLOCK_COMPONENT16 - SURFACE 3 (33)
  0
3DFACE
  8
Building Shading
 62
195
 10
       16.43424
 20
        2.58603
 30
        3.07500
 11
       16.43424
 21
        2.58603
 31
        2.92500
 12
       16.43424
 22
        3.58603
 32
        2.92500
 13
       16.43424
 23
        3.58603
 33
        3.07500
999
Building Shading:Mir-BUILDING_1_BLOCK_COMPONENT16 - SURFACE 3 (33)
  0
3DFACE
  8
Building Shading
 62
195
 10
       16.43424
 20
        3.58603
 30
        3.07500
 11
       16.43424
 21
        3.58603
 31
        2.92500
 12
       16.43424
 22
        2.58603
 32
        2.92500
 13
       16.43424
 23
        2.58603
 33
        3.07500
999
Building Shading:BUILDING_1_BLOCK_COMPONENT16 - SURFACE 4 (34)
  0
3DFACE
  8
Building Shading
 62
195
 10
       11.43424
 20
        2.58603
 30
        3.07500
 11
       11.43424
 21
        2.58603
 31
        2.92500
 12
       16.43424
 22
        2.58603
 32
        2.92500
 13
       16.43424
 23
        2.58603
 33
        3.07500
999
Building Shading:Mir-BUILDING_1_BLOCK_COMPONENT16 - SURFACE 4 (34)
  0
3DFACE
  8
Building Shading
 62
195
 10
       16.43424
 20
        2.58603
 30
        3.07500
 11
       16.43424
 21
        2.58603
 31
        2.92500
 12
       11.43424
 22
        2.58603
 32
        2.92500
 13
       11.43424
 23
        2.58603
 33
        3.07500
999
Building Shading:BUILDING_1_BLOCK_COMPONENT16 - SURFACE 5 (35)
  0
3DFACE
  8
Building Shading
 62
195
 10
       11.43424
 20
        3.58603
 30
        3.07500
 11
       11.43424
 21
        3.58603
 31
        2.92500
 12
       11.43424
 22
        2.58603
 32
        2.92500
 13
       11.43424
 23
        2.58603
 33
        3.07500
999
Building Shading:Mir-BUILDING_1_BLOCK_COMPONENT16 - SURFACE 5 (35)
  0
3DFACE
  8
Building Shading
 62
195
 10
       11.43424
 20
        2.58603
 30
        3.07500
 11
       11.43424
 21
        2.58603
 31
        2.92500
 12
       11.43424
 22
        3.58603
 32
        2.92500
 13
       11.43424
 23
        3.58603
 33
        3.07500
999
Building Shading:BUILDING_1_BLOCK_COMPONENT16 - SURFACE 6 (36)
  0
3DFACE
  8
Building Shading
 62
195
 10
       16.43424
 20
        3.58603
 30
        3.07500
 11
       16.43424
 21
        3.58603
 31
        2.92500
 12
       11.43424
 22
        3.58603
 32
        2.92500
 13
       11.43424
 23
        3.58603
 33
        3.07500
999
Building Shading:Mir-BUILDING_1_BLOCK_COMPONENT16 - SURFACE 6 (36)
  0
3DFACE
  8
Building Shading
 62
195
 10
       11.43424
 20
        3.58603
 30
        3.07500
 11
       11.43424
 21
        3.58603
 31
        2.92500
 12
       16.43424
 22
        3.58603
 32
        2.92500
 13
       16.43424
 23
        3.58603
 33
        3.07500
999
BLOCK1B:KITCHEN:BLOCK1B:KITCHEN_PARTITION_2_0_0
  0
3DFACE
  8
BLOCK1B_KITCHEN
 62
 43
 10
        7.68797
 20
       12.58603
 30
        3.00000
 11
        7.68797
 21
       12.58603
 31
        0.00000
 12
        7.68797
 22
        8.88603
 32
        0.00000
 13
        7.68797
 23
        8.88603
 33
        3.00000
999
BLOCK1B:KITCHEN:BLOCK1B:KITCHEN_PARTITION_3_0_0
  0
3DFACE
  8
BLOCK1B_KITCHEN
 62
 43
 10
        7.68797
 20
        8.88603
 30
        3.00000
 11
        7.68797
 21
        8.88603
 31
        0.00000
 12
       10.18424
 22
        8.88603
 32
        0.00000
 13
       10.18424
 23
        8.88603
 33
        3.00000
999
BLOCK1B:KITCHEN:BLOCK1B:KITCHEN_PARTITION_3_0_0_0_0_0_DOOR
  0
3DFACE
  8
BLOCK1B_KITCHEN
 62
 45
 10
        8.93610
 20
        8.88603
 30
        2.30216
 11
        8.93610
 21
        8.88603
 31
        0.10000
 12
        9.68582
 22
        8.88603
 32
        0.10000
 13
        9.68582
 23
        8.88603
 33
        2.30216
999
BLOCK1B:KITCHEN:BLOCK1B:KITCHEN_WALL_4_0_0
  0
3DFACE
  8
BLOCK1B_KITCHEN
 62
 43
 10
       10.18424
 20
        8.88603
 30
        3.00000
 11
       10.18424
 21
        8.88603
 31
        0.00000
 12
       10.18424
 22
       12.58603
 32
        0.00000
 13
       10.18424
 23
       12.58603
 33
        3.00000
999
BLOCK1B:KITCHEN:BLOCK1B:KITCHEN_WALL_5_0_0
  0
3DFACE
  8
BLOCK1B_KITCHEN
 62
 43
 10
       10.18424
 20
       12.58603
 30
        3.00000
 11
       10.18424
 21
       12.58603
 31
        0.00000
 12
        7.68797
 22
       12.58603
 32
        0.00000
 13
        7.68797
 23
       12.58603
 33
        3.00000
999
BLOCK1B:KITCHEN:BLOCK1B:KITCHEN_WALL_5_0_0_0_0_0_WIN
  0
3DFACE
  8
BLOCK1B_KITCHEN
 62
143
 10
        9.44656
 20
       12.58603
 30
        2.26016
 11
        9.44656
 21
       12.58603
 31
        0.14000
 12
        8.53092
 22
       12.58603
 32
        0.14000
 13
        8.53092
 23
       12.58603
 33
        2.26016
999
BLOCK1B:KITCHEN:BLOCK1B:KITCHEN_GROUNDFLOOR_0_0_0
  0
3DFACE
  8
BLOCK1B_KITCHEN
 62
  8
 10
       10.18424
 20
       12.58603
 30
        0.00000
 11
       10.18424
 21
        8.88603
 31
        0.00000
 12
        7.68797
 22
        8.88603
 32
        0.00000
 13
        7.68797
 23
       12.58603
 33
        0.00000
999
BLOCK1B:KITCHEN:BLOCK1B:KITCHEN_ROOF_1_0_0
  0
3DFACE
  8
BLOCK1B_KITCHEN
 62
 15
 10
        7.68797
 20
       12.58603
 30
        3.00000
 11
        7.68797
 21
        8.88603
 31
        3.00000
 12
       10.18424
 22
        8.88603
 32
        3.00000
 13
       10.18424
 23
       12.58603
 33
        3.00000
999
BLOCK1B:BATHROOM1:BLOCK1B:BATHROOM1_PARTITION_5_0_10000
  0
3DFACE
  8
BLOCK1B_BATHROOM1
 62
 43
 10
        7.68797
 20
        8.88603
 30
        3.00000
 11
        7.68797
 21
        8.88603
 31
        0.00000
 12
        7.68797
 22
       12.58603
 32
        0.00000
 13
        7.68797
 23
       12.58603
 33
        3.00000
999
BLOCK1B:BATHROOM1:BLOCK1B:BATHROOM1_PARTITION_2_0_0
  0
3DFACE
  8
BLOCK1B_BATHROOM1
 62
 43
 10
        6.18424
 20
       12.58603
 30
        3.00000
 11
        6.18424
 21
       12.58603
 31
        0.00000
 12
        6.18696
 22
        9.88942
 32
        0.00000
 13
        6.18696
 23
        9.88942
 33
        3.00000
999
BLOCK1B:BATHROOM1:BLOCK1B:BATHROOM1_PARTITION_3_0_0
  0
3DFACE
  8
BLOCK1B_BATHROOM1
 62
 43
 10
        6.18696
 20
        9.88942
 30
        3.00000
 11
        6.18696
 21
        9.88942
 31
        0.00000
 12
        6.18797
 22
        8.88603
 32
        0.00000
 13
        6.18797
 23
        8.88603
 33
        3.00000
999
BLOCK1B:BATHROOM1:BLOCK1B:BATHROOM1_PARTITION_3_0_0_0_0_0_DOOR
  0
3DFACE
  8
BLOCK1B_BATHROOM1
 62
 45
 10
        6.18706
 20
        9.78652
 30
        2.19221
 11
        6.18706
 21
        9.78652
 31
        0.00300
 12
        6.18786
 22
        8.98893
 32
        0.00300
 13
        6.18786
 23
        8.98893
 33
        2.19221
999
BLOCK1B:BATHROOM1:BLOCK1B:BATHROOM1_PARTITION_4_0_0
  0
3DFACE
  8
BLOCK1B_BATHROOM1
 62
 43
 10
        6.18797
 20
        8.88603
 30
        3.00000
 11
        6.18797
 21
        8.88603
 31
        0.00000
 12
        7.68797
 22
        8.88603
 32
        0.00000
 13
        7.68797
 23
        8.88603
 33
        3.00000
999
BLOCK1B:BATHROOM1:BLOCK1B:BATHROOM1_WALL_6_0_0
  0
3DFACE
  8
BLOCK1B_BATHROOM1
 62
 43
 10
        7.68797
 20
       12.58603
 30
        3.00000
 11
        7.68797
 21
       12.58603
 31
        0.00000
 12
        6.18424
 22
       12.58603
 32
        0.00000
 13
        6.18424
 23
       12.58603
 33
        3.00000
999
BLOCK1B:BATHROOM1:BLOCK1B:BATHROOM1_WALL_6_0_0_0_0_0_WIN
  0
3DFACE
  8
BLOCK1B_BATHROOM1
 62
143
 10
        7.30229
 20
       12.58603
 30
        2.26000
 11
        7.30229
 21
       12.58603
 31
        0.84000
 12
        6.57026
 22
       12.58603
 32
        0.84000
 13
        6.57026
 23
       12.58603
 33
        2.26000
999
BLOCK1B:BATHROOM1:BLOCK1B:BATHROOM1_GROUNDFLOOR_0_0_0
  0
3DFACE
  8
BLOCK1B_BATHROOM1
 62
  8
 10
        7.68797
 20
       12.58603
 30
        0.00000
 11
        7.68797
 21
        8.88603
 31
        0.00000
 12
        6.18797
 22
        8.88603
 32
        0.00000
 13
        6.18424
 23
       12.58603
 33
        0.00000
999
BLOCK1B:BATHROOM1:BLOCK1B:BATHROOM1_ROOF_1_0_0
  0
3DFACE
  8
BLOCK1B_BATHROOM1
 62
 15
 10
        6.18424
 20
       12.58603
 30
        3.00000
 11
        6.18797
 21
        8.88603
 31
        3.00000
 12
        7.68797
 22
        8.88603
 32
        3.00000
 13
        7.68797
 23
       12.58603
 33
        3.00000
999
BLOCK1B:ROOM1:BLOCK1B:ROOM1_PARTITION_5_0_10003
  0
3DFACE
  8
BLOCK1B_ROOM1
 62
 43
 10
        6.18696
 20
        9.88942
 30
        3.00000
 11
        6.18696
 21
        9.88942
 31
        0.00000
 12
        6.18424
 22
       12.58603
 32
        0.00000
 13
        6.18424
 23
       12.58603
 33
        3.00000
999
BLOCK1B:ROOM1:BLOCK1B:ROOM1_WALL_2_0_0
  0
3DFACE
  8
BLOCK1B_ROOM1
 62
 43
 10
        2.18424
 20
       12.58603
 30
        3.00000
 11
        2.18424
 21
       12.58603
 31
        0.00000
 12
        2.18424
 22
        9.88942
 32
        0.00000
 13
        2.18424
 23
        9.88942
 33
        3.00000
999
BLOCK1B:ROOM1:BLOCK1B:ROOM1_WALL_2_0_0_0_0_0_WIN
  0
3DFACE
  8
BLOCK1B_ROOM1
 62
143
 10
        2.18424
 20
       11.75131
 30
        2.26000
 11
        2.18424
 21
       11.75131
 31
        0.84000
 12
        2.18424
 22
       10.46114
 32
        0.84000
 13
        2.18424
 23
       10.46114
 33
        2.26000
999
BLOCK1B:ROOM1:BLOCK1B:ROOM1_PARTITION_3_0_0
  0
3DFACE
  8
BLOCK1B_ROOM1
 62
 43
 10
        2.18424
 20
        9.88942
 30
        3.00000
 11
        2.18424
 21
        9.88942
 31
        0.00000
 12
        4.93791
 22
        9.88942
 32
        0.00000
 13
        4.93791
 23
        9.88942
 33
        3.00000
999
BLOCK1B:ROOM1:BLOCK1B:ROOM1_PARTITION_4_0_0
  0
3DFACE
  8
BLOCK1B_ROOM1
 62
 43
 10
        4.93791
 20
        9.88942
 30
        3.00000
 11
        4.93791
 21
        9.88942
 31
        0.00000
 12
        6.18696
 22
        9.88942
 32
        0.00000
 13
        6.18696
 23
        9.88942
 33
        3.00000
999
BLOCK1B:ROOM1:BLOCK1B:ROOM1_PARTITION_4_0_0_0_0_0_DOOR
  0
3DFACE
  8
BLOCK1B_ROOM1
 62
 45
 10
        5.23927
 20
        9.88942
 30
        2.19346
 11
        5.23927
 21
        9.88942
 31
        0.00300
 12
        5.98276
 22
        9.88942
 32
        0.00300
 13
        5.98276
 23
        9.88942
 33
        2.19346
999
BLOCK1B:ROOM1:BLOCK1B:ROOM1_WALL_6_0_0
  0
3DFACE
  8
BLOCK1B_ROOM1
 62
 43
 10
        6.18424
 20
       12.58603
 30
        3.00000
 11
        6.18424
 21
       12.58603
 31
        0.00000
 12
        2.18424
 22
       12.58603
 32
        0.00000
 13
        2.18424
 23
       12.58603
 33
        3.00000
999
BLOCK1B:ROOM1:BLOCK1B:ROOM1_WALL_6_0_0_0_0_0_WIN
  0
3DFACE
  8
BLOCK1B_ROOM1
 62
143
 10
        5.35211
 20
       12.58603
 30
        2.26000
 11
        5.35211
 21
       12.58603
 31
        0.84000
 12
        3.27971
 22
       12.58603
 32
        0.84000
 13
        3.27971
 23
       12.58603
 33
        2.26000
999
BLOCK1B:ROOM1:BLOCK1B:ROOM1_GROUNDFLOOR_0_0_0
  0
3DFACE
  8
BLOCK1B_ROOM1
 62
  8
 10
        6.18424
 20
       12.58603
 30
        0.00000
 11
        6.18696
 21
        9.88942
 31
        0.00000
 12
        2.18424
 22
        9.88942
 32
        0.00000
 13
        2.18424
 23
       12.58603
 33
        0.00000
999
BLOCK1B:ROOM1:BLOCK1B:ROOM1_ROOF_1_0_0
  0
3DFACE
  8
BLOCK1B_ROOM1
 62
 15
 10
        2.18424
 20
       12.58603
 30
        3.00000
 11
        2.18424
 21
        9.88942
 31
        3.00000
 12
        6.18696
 22
        9.88942
 32
        3.00000
 13
        6.18424
 23
       12.58603
 33
        3.00000
999
BLOCK1B:CORRIDOR:BLOCK1B:CORRIDOR_PARTITION_5_0_10004
  0
3DFACE
  8
BLOCK1B_CORRIDOR
 62
 43
 10
        6.18797
 20
        8.88603
 30
        3.00000
 11
        6.18797
 21
        8.88603
 31
        0.00000
 12
        6.18696
 22
        9.88942
 32
        0.00000
 13
        6.18696
 23
        9.88942
 33
        3.00000
999
BLOCK1B:CORRIDOR:BLOCK1B:CORRIDOR_PARTITION_5_0_0_0_0_0_DOOR_10006
  0
3DFACE
  8
BLOCK1B_CORRIDOR
 62
 45
 10
        6.18786
 20
        8.98893
 30
        2.19221
 11
        6.18786
 21
        8.98893
 31
        0.00300
 12
        6.18706
 22
        9.78652
 32
        0.00300
 13
        6.18706
 23
        9.78652
 33
        2.19221
999
BLOCK1B:CORRIDOR:BLOCK1B:CORRIDOR_PARTITION_6_0_10008
  0
3DFACE
  8
BLOCK1B_CORRIDOR
 62
 43
 10
        6.18696
 20
        9.88942
 30
        3.00000
 11
        6.18696
 21
        9.88942
 31
        0.00000
 12
        4.93791
 22
        9.88942
 32
        0.00000
 13
        4.93791
 23
        9.88942
 33
        3.00000
999
BLOCK1B:CORRIDOR:BLOCK1B:CORRIDOR_PARTITION_6_0_0_0_0_0_DOOR_10010
  0
3DFACE
  8
BLOCK1B_CORRIDOR
 62
 45
 10
        5.98276
 20
        9.88942
 30
        2.19346
 11
        5.98276
 21
        9.88942
 31
        0.00300
 12
        5.23927
 22
        9.88942
 32
        0.00300
 13
        5.23927
 23
        9.88942
 33
        2.19346
999
BLOCK1B:CORRIDOR:BLOCK1B:CORRIDOR_PARTITION_2_0_0
  0
3DFACE
  8
BLOCK1B_CORRIDOR
 62
 43
 10
        4.93791
 20
        9.88942
 30
        3.00000
 11
        4.93791
 21
        9.88942
 31
        0.00000
 12
        4.93791
 22
        7.88942
 32
        0.00000
 13
        4.93791
 23
        7.88942
 33
        3.00000
999
BLOCK1B:CORRIDOR:BLOCK1B:CORRIDOR_PARTITION_2_0_0_0_0_0_DOOR
  0
3DFACE
  8
BLOCK1B_CORRIDOR
 62
 45
 10
        4.93791
 20
        9.28380
 30
        2.19319
 11
        4.93791
 21
        9.28380
 31
        0.00300
 12
        4.93791
 22
        8.58947
 32
        0.00300
 13
        4.93791
 23
        8.58947
 33
        2.19319
999
BLOCK1B:CORRIDOR:BLOCK1B:CORRIDOR_PARTITION_3_0_0
  0
3DFACE
  8
BLOCK1B_CORRIDOR
 62
 43
 10
        4.93791
 20
        7.88942
 30
        3.00000
 11
        4.93791
 21
        7.88942
 31
        0.00000
 12
        6.18727
 22
        7.88942
 32
        0.00000
 13
        6.18727
 23
        7.88942
 33
        3.00000
999
BLOCK1B:CORRIDOR:BLOCK1B:CORRIDOR_PARTITION_3_0_0_0_0_0_DOOR
  0
3DFACE
  8
BLOCK1B_CORRIDOR
 62
 45
 10
        5.26617
 20
        7.88942
 30
        2.20391
 11
        5.26617
 21
        7.88942
 31
        0.00200
 12
        5.96080
 22
        7.88942
 32
        0.00200
 13
        5.96080
 23
        7.88942
 33
        2.20391
999
BLOCK1B:CORRIDOR:BLOCK1B:CORRIDOR_PARTITION_4_0_0
  0
3DFACE
  8
BLOCK1B_CORRIDOR
 62
 43
 10
        6.18727
 20
        7.88942
 30
        3.00000
 11
        6.18727
 21
        7.88942
 31
        0.00000
 12
        6.18797
 22
        8.88603
 32
        0.00000
 13
        6.18797
 23
        8.88603
 33
        3.00000
999
BLOCK1B:CORRIDOR:BLOCK1B:CORRIDOR_PARTITION_4_0_0_0_0_0_DOOR
  0
3DFACE
  8
BLOCK1B_CORRIDOR
 62
 45
 10
        6.18734
 20
        7.99135
 30
        2.20048
 11
        6.18734
 21
        7.99135
 31
        0.00200
 12
        6.18790
 22
        8.78410
 32
        0.00200
 13
        6.18790
 23
        8.78410
 33
        2.20048
999
BLOCK1B:CORRIDOR:BLOCK1B:CORRIDOR_GROUNDFLOOR_0_0_0
  0
3DFACE
  8
BLOCK1B_CORRIDOR
 62
  8
 10
        6.18696
 20
        9.88942
 30
        0.00000
 11
        6.18727
 21
        7.88942
 31
        0.00000
 12
        4.93791
 22
        7.88942
 32
        0.00000
 13
        4.93791
 23
        9.88942
 33
        0.00000
999
BLOCK1B:CORRIDOR:BLOCK1B:CORRIDOR_ROOF_1_0_0
  0
3DFACE
  8
BLOCK1B_CORRIDOR
 62
 15
 10
        4.93791
 20
        9.88942
 30
        3.00000
 11
        4.93791
 21
        7.88942
 31
        3.00000
 12
        6.18727
 22
        7.88942
 32
        3.00000
 13
        6.18696
 23
        9.88942
 33
        3.00000
999
BLOCK1B:BATHROOM:BLOCK1B:BATHROOM_PARTITION_5_0_10007
  0
3DFACE
  8
BLOCK1B_BATHROOM
 62
 43
 10
        4.93791
 20
        9.88942
 30
        3.00000
 11
        4.93791
 21
        9.88942
 31
        0.00000
 12
        2.18424
 22
        9.88942
 32
        0.00000
 13
        2.18424
 23
        9.88942
 33
        3.00000
999
BLOCK1B:BATHROOM:BLOCK1B:BATHROOM_PARTITION_4_0_10010
  0
3DFACE
  8
BLOCK1B_BATHROOM
 62
 43
 10
        4.93791
 20
        7.88942
 30
        3.00000
 11
        4.93791
 21
        7.88942
 31
        0.00000
 12
        4.93791
 22
        9.88942
 32
        0.00000
 13
        4.93791
 23
        9.88942
 33
        3.00000
999
BLOCK1B:BATHROOM:BLOCK1B:BATHROOM_PARTITION_4_0_0_0_0_0_DOOR_10012
  0
3DFACE
  8
BLOCK1B_BATHROOM
 62
 45
 10
        4.93791
 20
        8.58947
 30
        2.19319
 11
        4.93791
 21
        8.58947
 31
        0.00300
 12
        4.93791
 22
        9.28380
 32
        0.00300
 13
        4.93791
 23
        9.28380
 33
        2.19319
999
BLOCK1B:BATHROOM:BLOCK1B:BATHROOM_WALL_2_0_0
  0
3DFACE
  8
BLOCK1B_BATHROOM
 62
 43
 10
        2.18424
 20
        9.88942
 30
        3.00000
 11
        2.18424
 21
        9.88942
 31
        0.00000
 12
        2.18424
 22
        7.88942
 32
        0.00000
 13
        2.18424
 23
        7.88942
 33
        3.00000
999
BLOCK1B:BATHROOM:BLOCK1B:BATHROOM_WALL_2_0_0_0_0_0_WIN
  0
3DFACE
  8
BLOCK1B_BATHROOM
 62
143
 10
        2.18424
 20
        9.40442
 30
        2.26000
 11
        2.18424
 21
        9.40442
 31
        0.84000
 12
        2.18424
 22
        8.37442
 32
        0.84000
 13
        2.18424
 23
        8.37442
 33
        2.26000
999
BLOCK1B:BATHROOM:BLOCK1B:BATHROOM_PARTITION_3_0_0
  0
3DFACE
  8
BLOCK1B_BATHROOM
 62
 43
 10
        2.18424
 20
        7.88942
 30
        3.00000
 11
        2.18424
 21
        7.88942
 31
        0.00000
 12
        4.93791
 22
        7.88942
 32
        0.00000
 13
        4.93791
 23
        7.88942
 33
        3.00000
999
BLOCK1B:BATHROOM:BLOCK1B:BATHROOM_GROUNDFLOOR_0_0_0
  0
3DFACE
  8
BLOCK1B_BATHROOM
 62
  8
 10
        4.93791
 20
        9.88942
 30
        0.00000
 11
        4.93791
 21
        7.88942
 31
        0.00000
 12
        2.18424
 22
        7.88942
 32
        0.00000
 13
        2.18424
 23
        9.88942
 33
        0.00000
999
BLOCK1B:BATHROOM:BLOCK1B:BATHROOM_ROOF_1_0_0
  0
3DFACE
  8
BLOCK1B_BATHROOM
 62
 15
 10
        2.18424
 20
        9.88942
 30
        3.00000
 11
        2.18424
 21
        7.88942
 31
        3.00000
 12
        4.93791
 22
        7.88942
 32
        3.00000
 13
        4.93791
 23
        9.88942
 33
        3.00000
999
BLOCK1B:LIVINGROOM:BLOCK1B:LIVINGROOM_PARTITION_10_0_10001
  0
3DFACE
  8
BLOCK1B_LIVINGROOM
 62
 43
 10
       10.18424
 20
        8.88603
 30
        3.00000
 11
       10.18424
 21
        8.88603
 31
        0.00000
 12
        7.68797
 22
        8.88603
 32
        0.00000
 13
        7.68797
 23
        8.88603
 33
        3.00000
999
BLOCK1B:LIVINGROOM:BLOCK1B:LIVINGROOM_PARTITION_10_0_0_0_0_0_DOOR_10003
  0
3DFACE
  8
BLOCK1B_LIVINGROOM
 62
 45
 10
        9.68582
 20
        8.88603
 30
        2.30216
 11
        9.68582
 21
        8.88603
 31
        0.10000
 12
        8.93610
 22
        8.88603
 32
        0.10000
 13
        8.93610
 23
        8.88603
 33
        2.30216
999
BLOCK1B:LIVINGROOM:BLOCK1B:LIVINGROOM_PARTITION_11_0_10006
  0
3DFACE
  8
BLOCK1B_LIVINGROOM
 62
 43
 10
        7.68797
 20
        8.88603
 30
        3.00000
 11
        7.68797
 21
        8.88603
 31
        0.00000
 12
        6.18797
 22
        8.88603
 32
        0.00000
 13
        6.18797
 23
        8.88603
 33
        3.00000
999
BLOCK1B:LIVINGROOM:BLOCK1B:LIVINGROOM_PARTITION_2_0_10014
  0
3DFACE
  8
BLOCK1B_LIVINGROOM
 62
 43
 10
        6.18797
 20
        8.88603
 30
        3.00000
 11
        6.18797
 21
        8.88603
 31
        0.00000
 12
        6.18727
 22
        7.88942
 32
        0.00000
 13
        6.18727
 23
        7.88942
 33
        3.00000
999
BLOCK1B:LIVINGROOM:BLOCK1B:LIVINGROOM_PARTITION_2_0_0_0_0_0_DOOR_10016
  0
3DFACE
  8
BLOCK1B_LIVINGROOM
 62
 45
 10
        6.18790
 20
        8.78410
 30
        2.20048
 11
        6.18790
 21
        8.78410
 31
        0.00200
 12
        6.18734
 22
        7.99135
 32
        0.00200
 13
        6.18734
 23
        7.99135
 33
        2.20048
999
BLOCK1B:LIVINGROOM:BLOCK1B:LIVINGROOM_PARTITION_3_0_0
  0
3DFACE
  8
BLOCK1B_LIVINGROOM
 62
 43
 10
        6.18727
 20
        7.88942
 30
        3.00000
 11
        6.18727
 21
        7.88942
 31
        0.00000
 12
        6.18424
 22
        3.58603
 32
        0.00000
 13
        6.18424
 23
        3.58603
 33
        3.00000
999
BLOCK1B:LIVINGROOM:BLOCK1B:LIVINGROOM_WALL_4_0_0
  0
3DFACE
  8
BLOCK1B_LIVINGROOM
 62
 43
 10
        6.18424
 20
        3.58603
 30
        3.00000
 11
        6.18424
 21
        3.58603
 31
        0.00000
 12
       11.43424
 22
        3.58603
 32
        0.00000
 13
       11.43424
 23
        3.58603
 33
        3.00000
999
BLOCK1B:LIVINGROOM:BLOCK1B:LIVINGROOM_WALL_4_0_0_0_0_1_WIN
  0
3DFACE
  8
BLOCK1B_LIVINGROOM
 62
143
 10
        8.02845
 20
        3.58603
 30
        2.15633
 11
        8.02845
 21
        3.58603
 31
        1.13816
 12
       10.63814
 22
        3.58603
 32
        1.13816
 13
       10.63814
 23
        3.58603
 33
        2.15633
999
BLOCK1B:LIVINGROOM:BLOCK1B:LIVINGROOM_WALL_4_0_0_1_0_0_WIN
  0
3DFACE
  8
BLOCK1B_LIVINGROOM
 62
143
 10
        6.92223
 20
        3.58603
 30
        2.15433
 11
        6.92223
 21
        3.58603
 31
        0.04200
 12
        7.64221
 22
        3.58603
 32
        0.04200
 13
        7.64221
 23
        3.58603
 33
        2.15433
999
BLOCK1B:LIVINGROOM:BLOCK1B:LIVINGROOM_WALL_5_0_0
  0
3DFACE
  8
BLOCK1B_LIVINGROOM
 62
 43
 10
       11.43424
 20
        3.58603
 30
        3.00000
 11
       11.43424
 21
        3.58603
 31
        0.00000
 12
       11.43424
 22
        4.78603
 32
        0.00000
 13
       11.43424
 23
        4.78603
 33
        3.00000
999
BLOCK1B:LIVINGROOM:BLOCK1B:LIVINGROOM_WALL_6_0_0
  0
3DFACE
  8
BLOCK1B_LIVINGROOM
 62
 43
 10
       11.43424
 20
        4.78603
 30
        3.00000
 11
       11.43424
 21
        4.78603
 31
        0.00000
 12
       10.43424
 22
        4.78603
 32
        0.00000
 13
       10.43424
 23
        4.78603
 33
        3.00000
999
BLOCK1B:LIVINGROOM:BLOCK1B:LIVINGROOM_WALL_7_0_0
  0
3DFACE
  8
BLOCK1B_LIVINGROOM
 62
 43
 10
       10.43424
 20
        4.78603
 30
        3.00000
 11
       10.43424
 21
        4.78603
 31
        0.00000
 12
       10.43424
 22
        6.78603
 32
        0.00000
 13
       10.43424
 23
        6.78603
 33
        3.00000
999
BLOCK1B:LIVINGROOM:BLOCK1B:LIVINGROOM_WALL_8_0_0
  0
3DFACE
  8
BLOCK1B_LIVINGROOM
 62
 43
 10
       10.43424
 20
        6.78603
 30
        3.00000
 11
       10.43424
 21
        6.78603
 31
        0.00000
 12
       10.18424
 22
        6.78603
 32
        0.00000
 13
       10.18424
 23
        6.78603
 33
        3.00000
999
BLOCK1B:LIVINGROOM:BLOCK1B:LIVINGROOM_WALL_9_0_0
  0
3DFACE
  8
BLOCK1B_LIVINGROOM
 62
 43
 10
       10.18424
 20
        6.78603
 30
        3.00000
 11
       10.18424
 21
        6.78603
 31
        0.00000
 12
       10.18424
 22
        8.88603
 32
        0.00000
 13
       10.18424
 23
        8.88603
 33
        3.00000
999
BLOCK1B:LIVINGROOM:BLOCK1B:LIVINGROOM_WALL_9_0_0_0_0_0_DOOR
  0
3DFACE
  8
BLOCK1B_LIVINGROOM
 62
 45
 10
       10.18424
 20
        7.85057
 30
        2.19501
 11
       10.18424
 21
        7.85057
 31
        0.00200
 12
       10.18424
 22
        8.69270
 32
        0.00200
 13
       10.18424
 23
        8.69270
 33
        2.19501
999
BLOCK1B:LIVINGROOM:BLOCK1B:LIVINGROOM_GROUNDFLOOR_0_0_0
  0
3DFACE
  8
BLOCK1B_LIVINGROOM
 62
  8
 10
       10.18424
 20
        8.88603
 30
        0.00000
 11
       10.18424
 21
        6.78603
 31
        0.00000
 12
        6.18649
 22
        6.78603
 32
        0.00000
 13
        6.18797
 23
        8.88603
 33
        0.00000
999
BLOCK1B:LIVINGROOM:BLOCK1B:LIVINGROOM_GROUNDFLOOR_0_0_1
  0
3DFACE
  8
BLOCK1B_LIVINGROOM
 62
  8
 10
       10.43424
 20
        6.78603
 30
        0.00000
 11
       10.43424
 21
        4.78603
 31
        0.00000
 12
        6.18508
 22
        4.78603
 32
        0.00000
 13
        6.18649
 23
        6.78603
 33
        0.00000
999
BLOCK1B:LIVINGROOM:BLOCK1B:LIVINGROOM_GROUNDFLOOR_0_0_2
  0
3DFACE
  8
BLOCK1B_LIVINGROOM
 62
  8
 10
       11.43424
 20
        4.78603
 30
        0.00000
 11
       11.43424
 21
        3.58603
 31
        0.00000
 12
        6.18424
 22
        3.58603
 32
        0.00000
 13
        6.18508
 23
        4.78603
 33
        0.00000
999
BLOCK1B:LIVINGROOM:BLOCK1B:LIVINGROOM_ROOF_1_0_0
  0
3DFACE
  8
BLOCK1B_LIVINGROOM
 62
 15
 10
       10.43424
 20
        4.78603
 30
        3.00000
 11
       10.43424
 21
        3.58603
 31
        3.00000
 12
       11.43424
 22
        3.58603
 32
        3.00000
 13
       11.43424
 23
        4.78603
 33
        3.00000
999
BLOCK1B:LIVINGROOM:BLOCK1B:LIVINGROOM_ROOF_1_0_1
  0
3DFACE
  8
BLOCK1B_LIVINGROOM
 62
 15
 10
       10.18424
 20
        6.78603
 30
        3.00000
 11
       10.18424
 21
        3.58603
 31
        3.00000
 12
       10.43424
 22
        3.58603
 32
        3.00000
 13
       10.43424
 23
        6.78603
 33
        3.00000
999
BLOCK1B:LIVINGROOM:BLOCK1B:LIVINGROOM_ROOF_1_0_2
  0
3DFACE
  8
BLOCK1B_LIVINGROOM
 62
 15
 10
        6.18797
 20
        8.88603
 30
        3.00000
 11
        6.18424
 21
        3.58603
 31
        3.00000
 12
       10.18424
 22
        3.58603
 32
        3.00000
 13
       10.18424
 23
        8.88603
 33
        3.00000
999
BLOCK1B:ROOM:BLOCK1B:ROOM_PARTITION_5_0_10012
  0
3DFACE
  8
BLOCK1B_ROOM
 62
 43
 10
        6.18727
 20
        7.88942
 30
        3.00000
 11
        6.18727
 21
        7.88942
 31
        0.00000
 12
        4.93791
 22
        7.88942
 32
        0.00000
 13
        4.93791
 23
        7.88942
 33
        3.00000
999
BLOCK1B:ROOM:BLOCK1B:ROOM_PARTITION_5_0_0_0_0_0_DOOR_10014
  0
3DFACE
  8
BLOCK1B_ROOM
 62
 45
 10
        5.96080
 20
        7.88942
 30
        2.20391
 11
        5.96080
 21
        7.88942
 31
        0.00200
 12
        5.26617
 22
        7.88942
 32
        0.00200
 13
        5.26617
 23
        7.88942
 33
        2.20391
999
BLOCK1B:ROOM:BLOCK1B:ROOM_PARTITION_6_0_10016
  0
3DFACE
  8
BLOCK1B_ROOM
 62
 43
 10
        4.93791
 20
        7.88942
 30
        3.00000
 11
        4.93791
 21
        7.88942
 31
        0.00000
 12
        2.18424
 22
        7.88942
 32
        0.00000
 13
        2.18424
 23
        7.88942
 33
        3.00000
999
BLOCK1B:ROOM:BLOCK1B:ROOM_PARTITION_4_0_10017
  0
3DFACE
  8
BLOCK1B_ROOM
 62
 43
 10
        6.18424
 20
        3.58603
 30
        3.00000
 11
        6.18424
 21
        3.58603
 31
        0.00000
 12
        6.18727
 22
        7.88942
 32
        0.00000
 13
        6.18727
 23
        7.88942
 33
        3.00000
999
BLOCK1B:ROOM:BLOCK1B:ROOM_WALL_2_0_0
  0
3DFACE
  8
BLOCK1B_ROOM
 62
 43
 10
        2.18424
 20
        7.88942
 30
        3.00000
 11
        2.18424
 21
        7.88942
 31
        0.00000
 12
        2.18424
 22
        3.58603
 32
        0.00000
 13
        2.18424
 23
        3.58603
 33
        3.00000
999
BLOCK1B:ROOM:BLOCK1B:ROOM_WALL_2_0_0_0_0_0_WIN
  0
3DFACE
  8
BLOCK1B_ROOM
 62
143
 10
        2.18424
 20
        6.99634
 30
        2.26000
 11
        2.18424
 21
        6.99634
 31
        0.84000
 12
        2.18424
 22
        4.74211
 32
        0.84000
 13
        2.18424
 23
        4.74211
 33
        2.26000
999
BLOCK1B:ROOM:BLOCK1B:ROOM_WALL_3_0_0
  0
3DFACE
  8
BLOCK1B_ROOM
 62
 43
 10
        2.18424
 20
        3.58603
 30
        3.00000
 11
        2.18424
 21
        3.58603
 31
        0.00000
 12
        6.18424
 22
        3.58603
 32
        0.00000
 13
        6.18424
 23
        3.58603
 33
        3.00000
999
BLOCK1B:ROOM:BLOCK1B:ROOM_WALL_3_0_0_0_0_0_WIN
  0
3DFACE
  8
BLOCK1B_ROOM
 62
143
 10
        3.27969
 20
        3.58603
 30
        2.26000
 11
        3.27969
 21
        3.58603
 31
        0.84000
 12
        5.35203
 22
        3.58603
 32
        0.84000
 13
        5.35203
 23
        3.58603
 33
        2.26000
999
BLOCK1B:ROOM:BLOCK1B:ROOM_GROUNDFLOOR_0_0_0
  0
3DFACE
  8
BLOCK1B_ROOM
 62
  8
 10
        6.18727
 20
        7.88942
 30
        0.00000
 11
        6.18424
 21
        3.58603
 31
        0.00000
 12
        2.18424
 22
        3.58603
 32
        0.00000
 13
        2.18424
 23
        7.88942
 33
        0.00000
999
BLOCK1B:ROOM:BLOCK1B:ROOM_ROOF_1_0_0
  0
3DFACE
  8
BLOCK1B_ROOM
 62
 15
 10
        2.18424
 20
        7.88942
 30
        3.00000
 11
        2.18424
 21
        3.58603
 31
        3.00000
 12
        6.18424
 22
        3.58603
 32
        3.00000
 13
        6.18727
 23
        7.88942
 33
        3.00000
999
BLOCK1B:KITCHEN:DayRefPt:1
  0
CIRCLE
  8
BLOCK1B_KITCHEN
 62
 10
 10
        8.43600
 20
       10.23600
 30
        0.80000
 40
        0.20000
999
BLOCK1B:BATHROOM1:DayRefPt:1
  0
CIRCLE
  8
BLOCK1B_BATHROOM1
 62
 10
 10
        6.43600
 20
       10.23600
 30
        0.80000
 40
        0.20000
999
BLOCK1B:ROOM1:DayRefPt:1
  0
CIRCLE
  8
BLOCK1B_ROOM1
 62
 10
 10
        3.68600
 20
       10.73800
 30
        0.80000
 40
        0.20000
999
BLOCK1B:CORRIDOR:DayRefPt:1
  0
CIRCLE
  8
BLOCK1B_CORRIDOR
 62
 10
 10
        5.06300
 20
        8.38900
 30
        0.80000
 40
        0.20000
999
BLOCK1B:BATHROOM:DayRefPt:1
  0
CIRCLE
  8
BLOCK1B_BATHROOM
 62
 10
 10
        3.06100
 20
        8.38900
 30
        0.80000
 40
        0.20000
999
BLOCK1B:LIVINGROOM:DayRefPt:1
  0
CIRCLE
  8
BLOCK1B_LIVINGROOM
 62
 10
 10
        7.81000
 20
        5.28600
 30
        0.80000
 40
        0.20000
999
BLOCK1B:ROOM:DayRefPt:1
  0
CIRCLE
  8
BLOCK1B_ROOM
 62
 10
 10
        3.68600
 20
        5.23800
 30
        0.80000
 40
        0.20000
999
BLOCK1B:KITCHEN:DEDayRefPt:1
  0
CIRCLE
  8
BLOCK1B_KITCHEN
 62
 10
 10
        8.43600
 20
       10.23600
 30
        0.80000
 40
        0.20000
999
BLOCK1B:BATHROOM1:DEDayRefPt:1
  0
CIRCLE
  8
BLOCK1B_BATHROOM1
 62
 10
 10
        6.43600
 20
       10.23600
 30
        0.80000
 40
        0.20000
999
BLOCK1B:ROOM1:DEDayRefPt:1
  0
CIRCLE
  8
BLOCK1B_ROOM1
 62
 10
 10
        3.68600
 20
       10.73800
 30
        0.80000
 40
        0.20000
999
BLOCK1B:CORRIDOR:DEDayRefPt:1
  0
CIRCLE
  8
BLOCK1B_CORRIDOR
 62
 10
 10
        5.06300
 20
        8.38900
 30
        0.80000
 40
        0.20000
999
BLOCK1B:BATHROOM:DEDayRefPt:1
  0
CIRCLE
  8
BLOCK1B_BATHROOM
 62
 10
 10
        3.06100
 20
        8.38900
 30
        0.80000
 40
        0.20000
999
BLOCK1B:LIVINGROOM:DEDayRefPt:1
  0
CIRCLE
  8
BLOCK1B_LIVINGROOM
 62
 10
 10
        7.81000
 20
        5.28600
 30
        0.80000
 40
        0.20000
999
BLOCK1B:ROOM:DEDayRefPt:1
  0
CIRCLE
  8
BLOCK1B_ROOM
 62
 10
 10
        3.68600
 20
        5.23800
 30
        0.80000
 40
        0.20000
  0
ENDSEC
  0
EOF
